1124
Generated by Multiwfn
C -5.420290 -2.619792 19.332916
C -3.455129 -1.444656 19.571613
C -2.766155 -2.587565 19.656103
C -1.472150 -2.240200 19.757181
N -1.427929 -0.971352 19.773269
C -2.573785 -0.442924 19.679271
C -2.072568 1.720624 19.832480
N -0.806802 1.751510 19.925714
C -0.271216 2.896347 20.067178
N -2.903135 0.778404 19.689562
C 1.906957 2.447497 20.054814
N 1.883197 1.179137 20.020052
C 3.034266 0.667292 19.881011
N 0.939718 3.258856 20.140507
C 2.533641 -1.506528 19.817972
N 1.263838 -1.535409 19.855068
C 0.709065 -2.680148 19.818619
N -0.502247 -3.050031 19.802224
N 3.365287 -0.552687 19.808115
C -4.780184 -1.436862 19.402023
C -4.744171 -3.777490 19.482061
C -3.402287 -3.766799 19.624973
C 5.819363 2.927890 19.472824
C 5.219131 1.725556 19.579033
C 3.900008 1.688405 19.799393
C 3.192904 2.814175 19.939184
C 3.790890 4.011771 19.906121
C 5.117160 4.064086 19.666538
C 2.991864 -5.472851 19.595759
C 1.792797 -4.862956 19.679210
C 1.750190 -3.526403 19.759967
C 2.878467 -2.803624 19.763685
C 4.074972 -3.401801 19.703498
C 4.128368 -4.746083 19.614216
C -3.717246 4.922585 19.994978
C -3.632147 3.586002 19.861397
C -2.425919 3.010955 19.921175
C -1.316108 3.741782 20.092244
C -1.396768 5.071809 20.242286
C -2.609455 5.664351 20.210256
C 3.073853 -6.807602 19.457909
C 5.307531 -5.385497 19.516050
C 7.116288 3.016892 19.128280
C 5.915954 5.208493 19.951692
C -2.748347 6.990984 20.392572
C -4.915945 5.524851 19.911999
C -6.740848 -2.652813 19.094764
C -5.442675 -4.929057 19.476591
C -3.952780 7.586904 20.339276
S -4.079413 9.388586 20.607613
C -2.924790 10.709662 21.079762
C -3.726050 11.974802 21.423844
N -3.158541 13.309970 21.214220
C -2.551617 14.127436 22.129721
C -1.951710 15.354559 22.062960
O -2.201021 13.503509 23.105387
C -2.680330 16.474181 22.200890
C -2.144554 17.707933 22.168009
C -0.822403 17.849731 21.910291
C -0.052096 16.744351 21.747040
C -0.645996 15.534863 21.809787
C -4.991050 6.986995 20.020804
S -6.719573 7.580892 19.949836
C -8.257784 8.434540 20.429184
C -7.805896 9.863402 20.067693
N -8.901254 10.794335 20.366594
C -9.942698 10.618674 21.238201
C -11.172485 11.202570 21.115048
O -9.645470 9.993291 22.230530
C -12.251875 10.462874 20.821112
C -13.495706 10.961518 20.682228
C -13.683956 12.296942 20.857884
C -12.613659 13.087130 21.141116
C -11.395555 12.518049 21.236106
C -7.426714 -3.808836 19.057018
S -9.202782 -3.712087 18.673576
C -10.479581 -2.533860 19.207298
C -11.585128 -3.606434 19.193183
N -12.690044 -2.781781 18.685053
C -13.911413 -2.623322 19.282305
C -15.123212 -1.999983 19.226753
O -13.984165 -3.038129 20.415097
C -16.256947 -2.691698 19.057994
C -17.473472 -2.115502 18.992922
C -17.566889 -0.760597 19.099426
C -16.430081 -0.022465 19.233032
C -15.249666 -0.668619 19.289304
C -6.775637 -4.968039 19.283232
S -7.479245 -6.658531 19.338844
C -8.760915 -7.888265 19.702052
C -8.142549 -9.280414 19.944641
N -9.253017 -10.152571 19.533848
C -9.707117 -11.270659 20.178686
C -10.687915 -12.163203 19.856586
O -9.245420 -11.427260 21.285122
C -10.394430 -13.334848 19.276121
C -11.323510 -14.243004 18.920010
C -12.635310 -13.971788 19.163290
C -12.973964 -12.779160 19.725922
C -11.990309 -11.913640 20.041567
C 5.390029 -6.721917 19.381567
S 7.096416 -7.343630 19.203893
C 8.285435 -8.613183 19.714945
C 9.704423 -8.013075 19.625664
N 10.412240 -9.231129 19.209046
C 11.269240 -9.977609 19.974045
C 11.908341 -11.089189 19.507722
O 11.301474 -9.666515 21.140853
C 11.279683 -12.269585 19.420114
C 11.861912 -13.394314 18.960568
C 13.166531 -13.345332 18.571067
C 13.849753 -12.172219 18.683388
C 13.199391 -11.089861 19.150775
C 4.254089 -7.442457 19.348353
S 4.217179 -9.250002 19.105493
C 2.588201 -10.063195 19.029010
C 2.328305 -11.529037 18.635812
N 1.582916 -12.781834 18.822699
C 0.983897 -13.569410 19.769082
C 0.465744 -14.806030 19.514776
O 0.822148 -13.027214 20.838191
C -0.823498 -15.073183 19.766416
C -1.377853 -16.282151 19.557033
C -0.605824 -17.285364 19.056957
C 0.716033 -17.057229 18.823546
C 1.209955 -15.827255 19.068770
C 7.738991 4.202373 19.000069
S 9.470166 4.202245 18.444390
C 10.890054 3.150278 18.866559
C 12.089193 4.056096 19.206243
N 13.223056 3.243264 18.745560
C 14.281376 2.835332 19.512382
C 15.388001 2.106515 19.189419
O 14.148941 3.007508 20.700651
C 15.329135 0.776977 19.041186
C 16.396124 0.018763 18.721946
C 17.606719 0.621765 18.556320
C 17.710003 1.968469 18.734037
C 16.598275 2.660840 19.046631
C 7.057701 5.338276 19.249596
S 7.659909 7.062340 19.159344
C 9.059829 7.885846 19.962982
C 8.747810 9.387954 20.130518
N 10.108944 9.897127 19.913270
C 10.875335 10.621610 20.786915
C 11.873130 11.554842 20.795825
O 10.404374 10.704124 21.897713
C 13.162412 11.187426 20.788289
C 14.193301 12.054849 20.805877
C 13.926569 13.389381 20.846403
C 12.630203 13.803469 20.880831
C 11.654190 12.874189 20.864337
O 1.283036 16.906885 21.459003
C 5.857022 15.751515 20.083838
C 4.445950 15.216582 20.361730
C 3.490401 16.339327 20.793488
C 2.081616 15.816799 21.082519
O -0.321906 19.134342 21.853804
C 2.273855 22.775545 23.943122
C 2.263193 21.299994 23.521015
C 0.928292 20.901990 22.871556
C 0.899940 19.421403 22.486340
O -2.983874 18.791524 22.306511
C -7.683424 20.295412 21.980063
C -6.699808 19.308444 22.622288
C -5.261870 19.518382 22.119227
C -4.297390 18.492819 22.715725
O -12.792721 14.444132 21.278772
C -11.669915 19.179155 22.024385
C -11.126219 17.752672 21.869823
C -12.247811 16.733026 21.617483
C -11.706092 15.308010 21.484534
O -14.968841 12.782519 20.752463
C -19.021254 15.103356 22.319291
C -17.488992 15.129550 22.241529
C -16.931005 13.897874 21.510563
C -15.401253 13.919351 21.451256
O -14.464157 10.011932 20.414229
C -18.790087 7.678797 20.697787
C -18.054468 9.017452 20.842661
C -16.552180 8.878733 20.549966
C -15.822011 10.216060 20.697000
O -16.493059 1.351043 19.287384
C -14.989881 6.007555 19.827520
C -14.565139 4.535446 19.750971
C -15.752736 3.607244 19.451202
C -15.336714 2.134528 19.426462
O -18.832940 -0.220842 19.039747
C -22.569259 2.975752 19.198582
C -21.047174 2.793151 19.268856
C -20.639019 1.317596 19.134388
C -19.119256 1.141016 19.196985
O -18.514011 -3.015957 18.853179
C -23.043986 -4.926611 19.160915
C -22.196629 -3.648033 19.198288
C -20.699508 -3.947944 19.019541
C -19.856313 -2.670788 19.065339
O -14.296544 -12.448167 19.908731
C -18.246842 -9.515670 20.158174
C -16.718126 -9.603593 20.258308
C -16.210029 -11.040096 20.057462
C -14.683969 -11.118795 20.137422
O -13.541770 -14.934215 18.776303
C -17.738223 -17.356250 17.937429
C -17.102587 -16.048181 18.427545
C -15.567798 -16.098634 18.365812
C -14.932795 -14.796917 18.862834
O -10.810534 -15.403462 18.369101
C -10.328453 -20.248865 17.597957
C -11.282729 -19.105324 17.965396
C -10.561331 -17.748637 18.012480
C -11.519537 -16.613857 18.382882
O 15.178896 -12.110969 18.334804
C 19.697689 -10.243817 17.753621
C 18.254585 -9.966824 18.195749
C 17.362129 -11.209735 18.053143
C 15.924067 -10.932679 18.496509
O 13.720612 -14.519868 18.111475
C 16.939478 -17.879954 16.516087
C 16.736544 -16.425112 16.959550
C 15.276514 -16.142443 17.346988
C 15.070399 -14.686453 17.776228
O 11.016870 -14.490008 18.916448
C 9.286913 -18.958757 17.740686
C 10.499356 -18.018648 17.741339
C 10.161314 -16.643119 18.340245
C 11.373844 -15.708491 18.320957
O 1.527871 -18.084012 18.402862
C 5.646432 -20.709141 17.777652
C 5.046788 -19.381131 18.258514
C 3.512288 -19.372682 18.185214
C 2.926692 -17.992008 18.494068
O -1.234601 -18.498386 18.883747
C -2.045644 -23.318100 18.358254
C -0.989356 -22.205122 18.378798
C -1.616978 -20.826248 18.632569
C -0.568828 -19.709600 18.652839
O -2.727384 -16.367926 19.844765
C -7.454470 -17.102850 18.674394
C -6.010909 -17.593614 18.503976
C -5.014911 -16.704450 19.263431
C -3.574357 -17.188200 19.084024
O 18.929472 2.595856 18.618828
C 22.230092 6.241115 18.425692
C 20.763757 5.866347 18.678200
C 20.543751 4.345493 18.660911
C 19.067334 3.977217 18.827456
O 18.666327 -0.195266 18.228911
C 23.159819 -1.762020 16.980755
C 22.288009 -0.549634 17.334313
C 20.828107 -0.950139 17.600420
C 19.965851 0.259264 17.972477
O 16.102909 -1.326444 18.586919
C 16.583532 -6.103457 17.489298
C 17.288998 -4.745138 17.597038
C 16.326802 -3.633337 18.045705
C 17.031927 -2.277712 18.143505
O 12.338354 15.145147 20.960236
C 9.679647 19.258187 21.454370
C 9.645435 17.727609 21.347418
C 11.053014 17.130033 21.195919
C 11.018930 15.603602 21.093436
O 15.011029 14.238612 20.866795
C 17.799219 18.288443 20.986296
C 16.370193 17.729108 20.994395
C 16.354912 16.193845 20.923374
C 14.928770 15.635001 20.933749
O 15.437030 11.449508 20.772160
C 20.327894 10.894258 20.534078
C 19.159730 11.886347 20.606696
C 17.800560 11.169295 20.653990
C 16.640816 12.166278 20.724068
H -0.243650 0.876346 19.868851
H 0.707345 -0.655245 19.893807
H -5.313026 -0.477403 19.303301
H -2.820981 -4.698034 19.717487
H 5.771147 0.783981 19.426522
H 3.187733 4.926243 20.027173
H 0.851654 -5.434079 19.659161
H 4.991136 -2.788980 19.702846
H -4.526921 2.961927 19.704725
H -0.474964 5.655478 20.396385
H 2.135125 -7.383146 19.393994
H 6.235024 -4.785535 19.524087
H 7.660552 2.083519 18.904408
H 5.174183 6.169179 19.748671
H -1.853054 7.601730 20.602306
H -5.804557 4.910083 19.691401
H -7.259466 -1.697501 18.907809
H -4.891535 -5.873555 19.629732
H -2.330018 10.379337 21.961733
H -2.197600 10.966806 20.275978
H -4.159619 12.383771 20.479955
H -4.610066 11.801479 22.069991
H -3.302690 13.754678 20.307474
H -3.767982 16.417084 22.379936
H -0.037270 14.650363 21.592599
H -9.132841 8.085085 19.836223
H -8.488442 8.250743 21.504476
H -6.898711 10.103498 20.670684
H -7.587632 9.905143 18.974036
H -8.959058 11.662999 19.835274
H -12.152294 9.370488 20.696776
H -10.531949 13.171720 21.383099
H -10.275303 -2.062887 20.196784
H -10.550543 -1.718768 18.448762
H -11.453720 -4.275534 18.310228
H -11.502079 -4.197354 20.134695
H -12.639594 -2.428634 17.730144
H -16.218084 -3.793168 18.988376
H -14.328446 -0.079222 19.335544
H -9.368377 -7.620870 20.598750
H -9.428335 -7.983883 18.813486
H -7.359951 -9.486701 19.177280
H -7.700765 -9.300374 20.967723
H -9.648901 -10.030381 18.601679
H -9.340547 -13.601436 19.082752
H -12.263411 -10.929310 20.434601
H 8.100458 -8.978994 20.751658
H 8.235483 -9.480011 19.014770
H 9.800973 -7.447375 18.668583
H 9.854516 -7.328938 20.493033
H 10.390222 -9.499290 18.225537
H 10.216658 -12.342271 19.708517
H 13.758610 -10.159601 19.292450
H 2.064147 -10.014206 20.011189
H 1.924417 -9.573067 18.280217
H 1.927979 -11.573591 17.593071
H 3.260421 -12.134128 18.608002
H 1.734189 -13.174708 17.892308
H -1.485069 -14.277140 20.152278
H 2.286433 -15.651807 18.942537
H 10.717526 2.474775 19.735719
H 11.128573 2.511855 17.982892
H 12.120195 4.919095 18.499768
H 11.959214 4.423194 20.250918
H 13.345167 3.093518 17.744622
H 14.361372 0.258132 19.158277
H 16.684481 3.733029 19.250746
H 9.288473 7.461562 20.969018
H 9.962052 7.800477 19.312911
H 8.288707 9.787449 19.195502
H 8.045552 9.494037 20.989637
H 10.512185 9.831613 18.978267
H 13.427275 10.116334 20.747319
H 10.618806 13.209461 20.959660
H 6.541280 14.931742 19.765752
H 5.844877 16.516533 19.273950
H 6.293280 16.223307 20.994080
H 4.496990 14.439089 21.161040
H 4.050548 14.724264 19.441498
H 3.442309 17.111785 19.988683
H 3.894741 16.838587 21.706936
H 2.133306 15.082149 21.919838
H 1.660051 15.347406 20.163025
H 3.249128 23.049976 24.408122
H 2.112879 23.448632 23.070276
H 1.473341 22.984456 24.689579
H 2.448700 20.662553 24.418225
H 3.097080 21.114460 22.802610
H 0.758534 21.526745 21.962811
H 0.098963 21.120103 23.585162
H 1.001726 18.801084 23.406620
H 1.740663 19.224172 21.783425
H -8.717208 20.140335 22.367168
H -7.394281 21.349394 22.196465
H -7.715103 20.165621 20.873728
H -7.028685 18.266170 22.393614
H -6.728172 19.431569 23.731924
H -4.923871 20.548231 22.386353
H -5.242129 19.437831 21.005956
H -4.579257 17.468608 22.378773
H -4.353950 18.538188 23.826277
H -10.842927 19.904089 22.204786
H -12.211428 19.505470 21.107289
H -12.375092 19.250568 22.883871
H -10.567750 17.472422 22.794732
H -10.400682 17.726048 21.022134
H -12.799295 17.009052 20.686840
H -12.979702 16.772100 22.459876
H -11.183823 15.032330 22.430722
H -11.015318 15.254138 20.611262
H -19.409905 16.004148 22.848063
H -19.475153 15.085666 21.302018
H -19.380102 14.205157 22.872079
H -17.069466 15.171879 23.275281
H -17.163966 16.057522 21.712650
H -17.343919 13.861644 20.474104
H -17.270318 12.972128 22.034466
H -15.002299 13.894055 22.491981
H -15.086539 14.839196 20.907824
H -19.877373 7.794950 20.913139
H -18.690521 7.275700 19.663988
H -18.384596 6.918450 21.403745
H -18.197861 9.406335 21.879268
H -18.504189 9.761601 20.142562
H -16.409602 8.488852 19.513584
H -16.106155 8.131887 21.249828
H -15.933889 10.572132 21.747652
H -16.256985 10.932705 19.962609
H -14.118361 6.662341 20.059049
H -15.425349 6.350641 18.861584
H -15.753339 6.165431 20.623070
H -14.096356 4.244411 20.721087
H -13.788060 4.414072 18.958951
H -16.207131 3.881853 18.469609
H -16.542182 3.759623 20.223376
H -14.830188 1.875243 20.384918
H -14.657876 1.968986 18.557711
H -22.847718 4.050844 19.292340
H -22.974740 2.604988 18.229451
H -23.079515 2.421412 20.019089
H -20.671643 3.197117 20.239258
H -20.569614 3.387156 18.453219
H -21.019775 0.914818 18.165118
H -21.116460 0.723440 19.950376
H -18.764764 1.488916 20.194847
H -18.667244 1.719464 18.358726
H -24.126335 -4.692249 19.284015
H -22.921592 -5.462399 18.192154
H -22.753175 -5.624643 19.979161
H -22.359601 -3.126419 20.172086
H -22.537805 -2.957532 18.389645
H -20.541230 -4.464988 18.042684
H -20.362362 -4.645648 19.823240
H -19.969444 -2.206345 20.072239
H -20.203322 -1.995764 18.249814
H -18.598200 -8.468579 20.307349
H -18.603988 -9.852525 19.158112
H -18.737607 -10.150847 20.930613
H -16.392052 -9.229046 21.258041
H -16.262274 -8.935906 19.488317
H -16.547646 -11.414957 19.061238
H -16.657942 -11.708417 20.831115
H -14.349845 -10.797347 21.150973
H -14.249479 -10.465449 19.345564
H -18.850315 -17.304558 17.987132
H -17.456483 -17.569392 16.881044
H -17.411989 -18.219781 18.561090
H -17.427766 -15.853605 19.477591
H -17.473445 -15.201941 17.801004
H -15.245585 -16.290916 17.314303
H -15.200603 -16.951230 18.986204
H -15.231971 -14.645789 19.925571
H -15.270080 -13.965296 18.202035
H -10.867588 -21.223608 17.563995
H -9.867156 -20.082622 16.597623
H -9.507176 -20.341719 18.345037
H -11.745053 -19.316623 18.959296
H -12.109347 -19.062747 17.215846
H -10.102633 -17.538486 17.016665
H -9.731750 -17.793771 18.758286
H -11.921688 -16.800298 19.405402
H -12.328102 -16.585460 17.617118
H 20.331161 -9.333230 17.861171
H 20.158284 -11.050708 18.368426
H 19.737541 -10.559431 16.685979
H 17.835965 -9.134064 17.581469
H 18.254865 -9.627373 19.259190
H 17.784380 -12.042297 18.665726
H 17.364175 -11.548689 16.989639
H 15.492045 -10.127048 17.858074
H 15.927571 -10.637244 19.571848
H 18.002511 -18.070842 16.242083
H 16.667206 -18.590375 17.329711
H 16.313016 -18.119659 15.626696
H 17.042279 -15.743032 16.130313
H 17.401124 -16.209550 17.830198
H 14.976471 -16.822020 18.180524
H 14.611929 -16.370134 16.478979
H 15.328985 -14.031259 16.912869
H 15.706636 -14.487562 18.669208
H 9.552007 -19.952606 17.311590
H 8.907763 -19.127077 18.774326
H 8.453737 -18.538741 17.132125
H 10.865709 -17.891078 16.694396
H 11.325891 -18.487680 18.327443
H 9.807363 -16.774132 19.390789
H 9.325684 -16.180943 17.761829
H 11.666124 -15.536897 17.259439
H 12.187759 -16.188938 18.911156
H 6.759567 -20.689443 17.827638
H 5.293354 -21.559953 18.403694
H 5.364565 -20.918071 16.720334
H 5.454234 -18.552915 17.633961
H 5.370033 -19.186755 19.309319
H 3.107076 -20.124522 18.903653
H 3.179859 -19.690777 17.169489
H 3.304008 -17.249660 17.753253
H 3.214285 -17.699092 19.530763
H -1.579688 -24.312608 18.171381
H -2.587701 -23.376155 19.330089
H -2.796527 -23.142545 17.554467
H -0.449634 -22.194845 17.401350
H -0.238156 -22.426131 19.174316
H -2.160318 -20.843882 19.608322
H -2.372788 -20.612536 17.839169
H -0.064155 -19.683879 17.660186
H 0.146551 -19.905899 19.484730
H -8.169443 -17.757342 18.125225
H -7.752891 -17.100648 19.747631
H -7.575335 -16.067571 18.281094
H -5.749183 -17.602660 17.418828
H -5.932646 -18.642900 18.875553
H -5.274109 -16.701744 20.348900
H -5.103262 -15.653017 18.899249
H -3.294076 -17.122853 18.007246
H -3.512357 -18.237511 19.452580
H 22.364725 7.347447 18.427323
H 22.894271 5.816003 19.212002
H 22.579742 5.861352 17.438930
H 20.131178 6.345900 17.893921
H 20.437277 6.278538 19.662776
H 21.141251 3.867852 19.473429
H 20.926296 3.931124 17.699994
H 18.457929 4.523795 18.070965
H 18.749412 4.241024 19.862812
H 24.215101 -1.455116 16.795470
H 23.165821 -2.508460 17.807700
H 22.788711 -2.270475 16.061751
H 22.325678 0.189094 16.498103
H 22.707973 -0.049586 18.239709
H 20.794936 -1.697706 18.429294
H 20.405628 -1.443625 16.692510
H 19.955338 0.965441 17.110651
H 20.392202 0.717851 18.894142
H 17.295496 -6.898936 17.170166
H 16.149657 -6.410386 18.468159
H 15.757515 -6.068963 16.742580
H 17.730363 -4.480068 16.606219
H 18.131305 -4.825332 18.325875
H 15.891996 -3.899960 19.038690
H 15.480537 -3.560686 17.321166
H 17.400657 -1.999375 17.129370
H 17.859887 -2.366105 18.883834
H 8.651611 19.674809 21.562061
H 10.271802 19.586773 22.338983
H 10.135927 19.714979 20.546606
H 9.019694 17.435264 20.470550
H 9.158068 17.306751 22.259246
H 11.678458 17.427547 22.071714
H 11.539699 17.551903 20.284139
H 10.427987 15.309536 20.194715
H 10.570676 15.186682 22.025506
H 17.794094 19.401680 21.037492
H 18.383423 17.912904 21.857432
H 18.340390 17.995334 20.057751
H 15.806843 18.148983 20.126740
H 15.849766 18.064959 21.923211
H 16.922707 15.777638 21.789951
H 16.877866 15.860733 19.994789
H 14.392406 16.024688 20.038153
H 14.441930 15.938789 21.888910
H 21.304833 11.429334 20.501278
H 20.339870 10.221507 21.422008
H 20.258906 10.259023 19.621462
H 19.195452 12.561195 19.718071
H 19.276787 12.525441 21.514631
H 17.767088 10.495801 21.543712
H 17.686803 10.528551 19.747041
H 16.665650 12.797307 19.805929
H 16.756864 12.768407 21.654529
C -5.627994 -2.137413 23.832916
C -3.567891 -1.138024 24.071613
C -2.981150 -2.336632 24.156103
C -1.661795 -2.103369 24.257181
N -1.507154 -0.843203 24.273269
C -2.602595 -0.216918 24.179271
C -1.914719 1.894712 24.332480
N -0.651078 1.815163 24.425714
C -0.017751 2.908964 24.567178
N -2.824245 1.028467 24.189562
C 2.113014 2.271981 24.554814
N 1.978800 1.010518 24.520052
C 3.080878 0.400299 24.381011
N 1.220170 3.164553 24.640507
C 2.392697 -1.721617 24.317972
N 1.125209 -1.639717 24.355068
C 0.472777 -2.731748 24.318619
N -0.766163 -2.994651 24.302224
N 3.304311 -0.843888 24.308115
C -4.887224 -1.014774 23.902023
C -5.055348 -3.349634 23.982061
C -3.717638 -3.455937 24.124973
C 6.052401 2.409558 23.972824
C 5.349662 1.264112 24.079033
C 4.032321 1.342072 24.299393
C 3.426026 2.525186 24.439184
C 4.126113 3.666107 24.406121
C 5.451896 3.602631 24.166538
C 2.503489 -5.712783 24.095759
C 1.362140 -5.000703 24.179210
C 1.436184 -3.665523 24.259967
C 2.623162 -3.043831 24.263685
C 3.762979 -3.744013 24.203498
C 3.699010 -5.087834 24.114216
C -3.274069 5.227832 24.494978
C -3.305785 3.888919 24.361397
C -2.154265 3.210930 24.421175
C -0.984982 3.842250 24.592244
C -0.949416 5.174245 24.742286
C -2.105845 5.870225 24.710256
C 2.468835 -7.049601 23.957909
C 4.817957 -5.827585 24.016050
C 7.352148 2.385187 23.628280
C 6.347392 4.673063 24.451692
C -2.128584 7.203916 24.892572
C -4.415716 5.932280 24.411999
C -6.946405 -2.055214 23.594764
C -5.851560 -4.435940 23.976591
C -3.276497 7.902541 24.839276
S -3.245621 9.708404 25.107613
C -1.980251 10.923821 25.579762
C -2.668199 12.253981 25.923844
N -1.986482 13.534606 25.714220
C -1.310620 14.296065 26.629721
C -0.606045 15.466233 26.562960
O -1.015737 13.643955 27.605387
C -1.234312 16.645098 26.700890
C -0.593045 17.827460 26.668009
C 0.736433 17.853485 26.410291
C 1.407469 16.685174 26.247040
C 0.710415 15.532051 26.309787
C -4.363101 7.395406 24.520804
S -6.033285 8.137694 24.449836
C -7.491242 9.122157 24.929184
C -6.916540 10.506197 24.567693
N -7.926594 11.529055 24.866594
C -8.979384 11.444830 25.738201
C -10.153602 12.133687 25.615048
O -8.737793 10.795922 26.730530
C -11.293353 11.490881 25.321112
C -12.488992 12.096035 25.182228
C -12.560135 13.442783 25.357884
C -11.425042 14.136682 25.641116
C -10.261172 13.463602 25.736106
C -7.730415 -3.147062 23.557018
S -9.491293 -2.895886 23.173576
C -10.660544 -1.610862 23.707298
C -11.855365 -2.583000 23.693183
N -12.884203 -1.665185 23.185053
C -14.087113 -1.400880 23.782305
C -15.239973 -0.674297 23.726753
O -14.195741 -1.807768 24.915097
C -16.429681 -1.264569 23.557994
C -17.591358 -0.584538 23.492922
C -17.566332 0.773353 23.599426
C -16.369518 1.409596 23.733032
C -15.249911 0.663022 23.789304
C -7.182847 -4.358598 23.783232
S -8.031114 -5.981334 23.838844
C -9.415085 -7.094684 24.202052
C -8.920405 -8.535429 24.444641
N -10.102662 -9.307484 24.033848
C -10.652481 -10.381740 24.678686
C -11.707337 -11.185405 24.356586
O -10.206190 -10.577984 25.785122
C -11.517085 -12.378170 23.776121
C -12.521781 -13.201897 23.420010
C -13.804950 -12.817381 23.663290
C -14.038372 -11.599776 24.225922
C -12.983025 -10.823281 24.541567
C 4.783664 -7.166110 23.881567
S 6.429373 -7.934178 23.703893
C 7.503218 -9.302530 24.214945
C 8.969110 -8.828379 24.125664
N 9.568072 -10.103489 23.709046
C 10.356751 -10.921820 24.474045
C 10.896540 -12.084871 24.007722
O 10.415976 -10.614719 25.640853
C 10.167395 -13.205985 23.920114
C 10.649383 -14.377179 23.460568
C 11.953306 -14.442088 23.071067
C 12.736172 -13.332985 23.183388
C 12.182618 -12.198064 23.650775
C 3.589248 -7.784905 23.848353
S 3.394940 -9.582354 23.605493
C 1.701286 -10.250479 23.529010
C 1.314623 -11.688090 23.135812
N 0.462882 -12.871156 23.322699
C -0.202499 -13.603527 24.269082
C -0.826459 -14.790281 24.014776
O -0.316377 -13.049296 25.338191
C -2.134078 -14.944052 24.266416
C -2.791693 -16.100105 24.057033
C -2.110037 -17.166787 23.556957
C -0.773327 -17.054727 23.323546
C -0.174086 -15.872482 23.568770
C 8.075802 3.511884 23.500069
S 9.800379 3.360875 22.944390
C 11.123179 2.189159 23.366559
C 12.396702 2.987018 23.706243
N 13.455407 2.078457 23.245560
C 14.474147 1.579839 24.012382
C 15.513039 0.757346 23.689419
O 14.357221 1.762902 25.200651
C 15.338521 -0.562002 23.541186
C 16.335367 -1.410325 23.221946
C 17.593911 -0.915127 23.056320
C 17.814174 0.417450 23.234037
C 16.767022 1.204080 23.546631
C 7.496106 4.702843 23.749596
S 8.246285 6.367860 23.659344
C 9.712650 7.066222 24.462982
C 9.532736 8.589808 24.630518
N 10.933068 8.978413 24.413270
C 11.759685 9.633344 25.286915
C 12.835020 10.476061 25.295825
O 11.297708 9.756590 26.397713
C 14.087373 9.997675 25.288289
C 15.189940 10.771949 25.305877
C 15.040536 12.124650 25.346403
C 13.785192 12.650147 25.380831
C 12.731902 11.809469 25.364337
O 2.751686 16.730725 25.959003
C 7.207569 15.181103 24.583838
C 5.755245 14.771189 24.861730
C 4.901185 15.972942 25.293488
C 3.452220 15.575186 25.582519
O 1.346987 19.089586 26.353804
C 4.250222 22.490698 28.443122
C 4.110997 21.021691 28.021015
C 2.746489 20.741546 27.371556
C 2.589202 19.269064 26.986340
O -1.334730 18.980078 26.806511
C -5.885325 20.887837 26.480063
C -4.991472 19.818896 27.122288
C -3.540708 19.902711 26.619227
C -2.669282 18.796990 27.215725
O -11.485151 15.504127 25.778772
C -9.953934 20.123273 26.524385
C -9.536633 18.654831 26.369823
C -10.742825 17.736819 26.117483
C -10.327366 16.270012 25.984534
O -13.797810 14.038498 25.252463
C -17.632528 16.703694 26.819291
C -16.103814 16.596243 26.741529
C -15.655298 15.320623 26.010563
C -14.129495 15.208692 25.951256
O -13.536519 11.234468 24.914229
C -18.049334 9.287241 25.197787
C -17.199843 10.556689 25.342661
C -15.715362 10.287564 25.049966
C -14.871415 11.556164 25.197000
O -16.312547 2.783366 23.787384
C -14.409247 7.291149 24.327520
C -14.114424 5.787623 24.250971
C -15.378400 4.966459 23.951202
C -15.092317 3.463088 23.926462
O -18.780523 1.421397 23.539747
C -22.224022 4.931469 23.698582
C -20.723644 4.616905 23.768856
C -20.445645 3.111391 23.634388
C -18.947056 2.803027 23.696985
O -18.706417 -1.390878 23.353179
C -23.385679 -2.899448 23.660915
C -22.430112 -1.699588 23.698288
C -20.964826 -2.128840 23.519541
C -20.013528 -0.930033 23.565339
O -15.327070 -11.154772 24.408731
C -19.006753 -7.889143 24.658174
C -17.491517 -8.109968 24.758308
C -17.110552 -9.585288 24.557462
C -15.597159 -9.796693 24.637422
O -14.791842 -13.697143 23.276303
C -19.183421 -15.744216 22.437429
C -18.436198 -14.496524 22.927545
C -16.911646 -14.680551 22.865812
C -16.165608 -13.439132 23.362834
O -12.111897 -14.402647 22.869101
C -12.053955 -19.271628 22.097957
C -12.904933 -18.049267 22.465396
C -12.068037 -16.760617 22.512480
C -12.923695 -15.546643 22.882882
O 14.065596 -13.387811 22.834804
C 18.729926 -11.921603 22.253621
C 17.316455 -11.519889 22.695749
C 16.319068 -12.680288 22.553143
C 14.910626 -12.278951 22.996509
O 12.402911 -15.660446 22.611475
C 15.316677 -19.288288 21.016087
C 15.241313 -17.821296 21.459550
C 13.811476 -17.412453 21.846988
C 13.733043 -15.944039 22.276228
O 9.712060 -15.395053 23.416448
C 7.599209 -19.696021 22.240686
C 8.888974 -18.865161 22.241339
C 8.672103 -17.465403 22.840245
C 9.961478 -16.640011 22.820957
O -0.054069 -18.148359 22.902862
C 3.820025 -21.122456 22.277652
C 3.338406 -19.747236 22.758514
C 1.810482 -19.605079 22.685214
C 1.347448 -18.178621 22.994068
O -2.842143 -18.320391 23.383747
C -4.070166 -23.051078 22.858254
C -2.920895 -22.034397 22.878798
C -3.425952 -20.606069 23.132569
C -2.284469 -19.585023 23.152839
O -4.143564 -16.067934 24.344765
C -8.916715 -16.388068 23.174394
C -7.521420 -17.002779 23.003976
C -6.451716 -16.203806 23.763431
C -5.058806 -16.811268 23.584024
O 19.083683 0.936166 23.118828
C 22.689449 4.279885 22.925692
C 21.196030 4.034343 23.178200
C 20.844310 2.538451 23.160911
C 19.341414 2.300255 23.327456
O 18.578278 -1.821401 22.728911
C 22.918118 -3.773826 21.480755
C 22.155292 -2.490070 21.834313
C 20.666040 -2.761813 22.100420
C 19.912472 -1.481862 22.472477
O 15.926025 -2.724858 23.086919
C 15.988475 -7.525581 21.989298
C 16.809642 -6.233917 22.097038
C 15.948007 -5.042486 22.545705
C 16.768600 -3.753474 22.643505
O 13.611390 14.012157 25.460236
C 11.321274 18.341267 25.954370
C 11.153794 16.819495 25.847418
C 12.503935 16.101515 25.695919
C 12.336944 14.583863 25.593436
O 16.194884 12.876132 25.366795
C 19.325430 16.667546 25.486296
C 17.853093 16.234887 25.494395
C 17.704063 14.706798 25.423374
C 16.234642 14.274377 25.433749
O 16.376178 10.060513 25.272160
C 21.200038 9.081109 25.034078
C 20.122785 10.171235 25.106696
C 18.706292 9.575371 25.153990
C 17.637854 10.669638 25.224068
H -0.166344 0.894247 24.368851
H 0.647545 -0.714401 24.393807
H -5.334417 -0.012525 23.803301
H -3.219707 -4.434292 24.217487
H 5.817514 0.278009 23.926522
H 3.604953 4.629668 24.527173
H 0.374802 -5.487627 24.159161
H 4.729067 -3.213374 24.202846
H -4.251545 3.345203 24.204725
H 0.019751 5.675353 24.896385
H 1.483517 -7.541139 23.893994
H 5.794211 -5.310742 24.024087
H 7.812992 1.407930 23.404408
H 5.692173 5.694743 24.248671
H -1.183468 7.734307 25.102306
H -5.354527 5.397299 24.191401
H -7.379789 -1.058338 23.407809
H -5.384836 -5.424879 24.129732
H -1.416533 10.542915 26.461733
H -1.233418 11.116608 24.775978
H -3.064474 12.699181 24.979955
H -3.563957 12.158364 26.569991
H -2.091323 13.990186 24.807474
H -2.322800 16.683014 26.879936
H 1.239735 14.597862 26.092599
H -8.393426 8.850299 24.336223
H -7.737041 8.959163 26.004476
H -5.991882 10.666313 25.170684
H -6.695468 10.528757 23.474036
H -7.908469 12.399451 24.335274
H -11.289359 10.393973 25.196776
H -9.343880 14.039517 25.883099
H -10.415995 -1.159485 24.696784
H -10.660195 -0.792687 22.948762
H -11.782773 -3.261007 22.810228
H -11.824134 -3.178910 24.634695
H -12.803166 -1.317779 22.230144
H -16.486966 -2.365235 23.488376
H -14.280827 1.169886 23.835544
H -9.996930 -6.775362 25.098750
H -10.088299 -7.131769 23.313486
H -8.158765 -8.809139 23.677280
H -8.482042 -8.593817 25.467723
H -10.486389 -9.151255 23.101679
H -10.490446 -12.735597 23.582752
H -13.169297 -9.818894 24.934601
H 7.287063 -9.650828 25.251658
H 7.377907 -10.161706 23.514770
H 9.114595 -8.273247 23.168583
H 9.178258 -8.159927 24.993033
H 9.522766 -10.368710 22.725537
H 9.102081 -13.185745 24.208517
H 12.820787 -11.320082 23.792450
H 1.183496 -10.156001 24.511189
H 1.082746 -9.704363 22.780217
H 0.911937 -11.697584 22.093071
H 2.190455 -12.372118 23.108002
H 0.579339 -13.275718 22.392308
H -2.723753 -14.093379 24.652278
H 0.913587 -15.791523 23.442537
H 10.892433 1.531264 24.235719
H 11.305148 1.532377 22.482892
H 12.502802 3.844032 22.999768
H 12.299212 3.364048 24.750918
H 13.564003 1.918638 22.244622
H 14.329220 -0.994526 23.658277
H 16.946347 2.264675 23.750746
H 9.903446 6.623624 25.469018
H 10.604000 6.902544 23.812911
H 9.110198 9.027796 23.695502
H 8.842396 8.756694 25.489637
H 11.329065 8.878004 23.478267
H 14.257877 8.907574 25.247319
H 11.729679 12.233705 25.459660
H 7.817775 14.304812 24.265752
H 7.262146 15.944268 23.773950
H 7.683286 15.613077 25.494080
H 5.738328 13.992205 25.661040
H 5.318439 14.315206 23.941498
H 4.920600 16.746652 24.488683
H 5.347500 16.435062 26.206936
H 3.439684 14.838827 26.419838
H 2.991348 15.144321 24.663025
H 5.245702 22.679084 28.908122
H 4.148522 23.175253 27.570276
H 3.470962 22.768583 29.189579
H 4.240242 20.370507 28.918225
H 4.925542 20.764184 27.302610
H 2.631827 21.378718 26.462811
H 1.939325 21.031110 28.085162
H 2.636537 18.642234 27.906620
H 3.409536 18.999310 26.283425
H -6.928691 20.823449 26.867168
H -5.505421 21.912607 26.696465
H -5.928195 20.761300 25.373728
H -5.409938 18.809252 26.893614
H -5.008996 19.944024 28.231924
H -3.114238 20.899183 26.886353
H -3.528062 19.820746 25.505956
H -3.039342 17.801243 26.878773
H -2.721672 18.847116 28.326277
H -9.066911 20.773371 26.704786
H -10.464946 20.495542 25.607289
H -10.650203 20.255874 27.383871
H -9.004715 18.326974 27.294732
H -8.816178 18.565074 25.522134
H -11.268154 18.059860 25.186840
H -11.468525 17.839532 26.959876
H -9.831111 15.949862 26.930722
H -9.643916 16.156140 25.111262
H -17.941191 17.634932 27.348063
H -18.086242 16.725632 25.802018
H -18.068294 15.840189 27.372079
H -15.682195 16.601848 27.775281
H -15.699147 17.492357 26.212650
H -16.069799 15.320518 24.974104
H -16.074004 14.427972 26.534466
H -13.734264 15.148720 26.991981
H -13.735809 16.097607 25.407824
H -19.122358 9.497715 25.413139
H -17.985279 8.877000 24.163988
H -17.711654 8.494446 25.903745
H -17.308796 10.956589 26.379268
H -17.582995 11.337202 24.642562
H -15.607306 9.886741 24.013584
H -15.336126 9.504687 25.749828
H -14.951834 11.920632 26.247652
H -15.242274 12.307992 24.462609
H -13.483976 7.867485 24.559049
H -14.813156 7.670883 23.361584
H -15.156040 7.514964 25.123070
H -13.672791 5.456838 25.221087
H -13.350881 5.598984 23.458951
H -15.807132 5.279626 22.969609
H -16.151561 5.187063 24.723376
H -14.610316 3.160643 24.884918
H -14.430490 3.239012 23.057711
H -22.407721 6.026739 23.792340
H -22.660274 4.597456 22.729451
H -22.780650 4.423710 24.519089
H -20.314334 4.986604 24.739258
H -20.196130 5.167026 22.953219
H -20.860056 2.743331 22.665118
H -20.973054 2.561108 24.450376
H -18.563591 3.118707 24.694847
H -18.446348 3.339878 22.858726
H -24.443483 -2.571645 23.784015
H -23.310448 -3.443865 22.692154
H -23.156812 -3.620170 24.479161
H -22.547001 -1.165754 24.672086
H -22.709807 -0.981979 22.889645
H -20.852214 -2.657711 22.542684
H -20.689772 -2.853274 24.323240
H -20.085750 -0.457497 24.572239
H -20.300384 -0.227334 22.749814
H -19.265513 -6.815414 24.807349
H -19.391899 -8.193589 23.658112
H -19.551010 -8.479130 25.430613
H -17.134039 -7.765266 25.758041
H -16.979206 -7.484552 23.988317
H -17.479556 -9.929297 23.561238
H -17.615009 -10.212028 25.331115
H -15.236290 -9.505589 25.650973
H -15.107379 -9.183701 23.845564
H -20.286775 -15.595796 22.487132
H -18.921329 -15.981103 21.381044
H -18.933689 -16.632894 23.061090
H -18.743181 -14.274347 23.977591
H -18.731890 -13.621182 22.301004
H -16.607418 -14.900184 21.814303
H -16.620157 -15.561905 23.486204
H -16.450474 -13.262503 24.425571
H -16.429129 -12.581278 22.702035
H -12.675993 -20.195673 22.063995
H -11.579924 -19.146222 21.097623
H -11.243896 -19.435707 22.845037
H -13.383914 -18.219469 23.459296
H -13.724695 -17.934809 21.715846
H -11.592769 -16.591244 21.516665
H -11.245547 -16.877882 23.258286
H -13.340565 -15.697324 23.905402
H -13.726708 -15.447882 22.117118
H 19.440350 -11.069692 22.361171
H 19.118443 -12.765567 22.868426
H 18.742118 -12.239490 21.185979
H 16.972007 -10.653813 22.081469
H 17.346319 -11.181754 23.759190
H 16.667150 -13.546484 23.165726
H 16.291565 -13.018131 21.489639
H 14.550463 -11.438732 22.358074
H 14.939864 -11.984945 24.071848
H 16.359028 -19.571099 20.742083
H 14.983524 -19.972276 21.829711
H 14.671708 -19.472482 20.126696
H 15.605332 -17.168458 20.630313
H 15.922152 -17.664475 22.330198
H 13.453345 -18.063293 22.680524
H 13.129575 -17.581354 20.978979
H 14.047749 -15.313874 21.412869
H 14.384193 -15.801356 23.169208
H 7.776675 -20.709193 21.811590
H 7.206832 -19.830655 23.274326
H 6.805810 -19.204987 21.632125
H 9.265051 -18.770006 21.194396
H 9.671485 -19.404446 22.827443
H 8.308081 -17.565069 23.890789
H 7.879935 -16.932156 22.261829
H 10.267602 -16.494544 21.759439
H 10.730422 -17.189568 23.411156
H 4.930641 -21.199848 22.327638
H 3.394138 -21.939257 22.903694
H 3.521022 -21.306024 21.220334
H 3.816486 -18.957684 22.133961
H 3.677362 -19.581773 23.809319
H 1.341285 -20.318742 23.403653
H 1.451594 -19.892990 21.669489
H 1.788029 -17.471983 22.253253
H 1.659476 -17.911885 24.030763
H -3.692660 -24.082412 22.671381
H -4.615221 -23.061668 23.830089
H -4.802891 -22.810747 22.054467
H -2.382331 -22.071199 21.901350
H -2.191816 -22.320036 23.674316
H -3.968762 -20.576280 24.108322
H -4.160260 -20.327297 22.339169
H -1.779474 -19.603385 22.160186
H -1.588920 -19.842924 23.984730
H -9.686010 -16.977756 22.625225
H -9.213808 -16.359866 24.247631
H -8.946889 -15.346195 22.781094
H -7.261478 -17.034602 21.918828
H -7.534906 -18.054894 23.375553
H -6.709692 -16.178519 24.848900
H -6.448093 -15.148674 23.399249
H -4.773896 -16.770597 22.507246
H -5.088495 -17.861990 23.952580
H 22.919993 5.370273 22.927323
H 23.314050 3.798504 23.712002
H 23.004670 3.871093 21.938930
H 20.607655 4.567204 22.393921
H 20.906717 4.473420 24.162776
H 21.397908 2.010552 23.973429
H 21.189286 2.092318 22.199994
H 18.781965 2.897866 22.570965
H 19.047695 2.590766 24.362812
H 23.996134 -3.560064 21.295470
H 22.859042 -4.517949 22.307700
H 22.504108 -4.248002 20.561751
H 22.257202 -1.757437 20.998103
H 22.617240 -2.028527 22.739709
H 20.567840 -3.503644 22.929294
H 20.202158 -3.216599 21.192510
H 19.963546 -0.777455 21.610651
H 20.377168 -1.062178 23.394142
H 16.628399 -8.380085 21.670166
H 15.529500 -7.793528 22.968159
H 15.168608 -7.419227 21.242580
H 17.272430 -6.008323 21.106219
H 17.641754 -6.387217 22.825875
H 15.491618 -5.270198 23.538690
H 15.111294 -4.896354 21.821166
H 17.160185 -3.508334 21.629370
H 17.585705 -3.913693 23.383834
H 10.333461 18.845903 26.062061
H 11.939814 18.616993 26.838983
H 11.815630 18.756553 25.046606
H 10.504954 16.582800 24.970550
H 10.631602 16.442715 26.759246
H 13.152929 16.343385 26.571714
H 13.025536 16.479361 24.784139
H 11.722619 14.342419 24.694715
H 11.854058 14.207597 26.525506
H 19.417350 17.776994 25.537492
H 19.874681 16.242519 26.357432
H 19.838996 16.328386 24.557751
H 17.328481 16.702263 24.626740
H 17.363917 16.614818 26.423211
H 18.233423 14.242688 26.289951
H 18.195995 14.329375 24.494789
H 15.734282 14.709328 24.538153
H 15.776131 14.619440 26.388910
H 22.219894 9.529003 25.001278
H 21.153334 8.409874 25.922008
H 21.075947 8.454305 24.121462
H 20.217188 10.840402 24.218071
H 20.295097 10.797696 26.014631
H 18.614248 8.907358 26.043712
H 18.537123 8.946981 24.247041
H 17.717591 11.296102 24.305929
H 17.805939 11.259362 26.154529
